18

Zr      4.014905175577983      0.616426073566765     11.286347499999994
Zr      4.014905175577985      5.755959574088238     11.286347499999994
Zr      4.014905175577983      0.616426073566765     16.431737500000001
Zr      4.014905175577985      5.755959574088238     16.431737500000001
Zr      5.728083009085143      4.042781740581082     13.859042500000001
Zr      0.588549508563668      4.042781740581082     13.859042500000001
Zr      4.014905175577983      0.616426073566765     21.577127500000003
Zr      4.014905175577985      5.755959574088238     21.577127500000003
Zr      5.728083009085143      4.042781740581082     19.004432500000004
Zr      0.588549508563668      4.042781740581082     19.004432500000004
Zr      4.014905175577983      0.616426073566765     26.722517500000002
Zr      4.014905175577985      5.755959574088238     26.722517500000002
Zr      5.728083009085143      4.042781740581082     24.149822500000003
Zr      0.588549508563668      4.042781740581082     24.149822500000003
Zr      4.014905175577983      0.616426073566765     31.867907500000008
Zr      4.014905175577985      5.755959574088238     31.867907500000008
Zr      5.728083009085143      4.042781740581082     29.295212499999998
Zr      0.588549508563668      4.042781740581082     29.295212499999998
